[General]
cmdenv-express-mode = true
cmdenv-autoflush = true
cmdenv-status-frequency = 10s
num-rngs = 6

network = Highway

##########################################################
#            Simulation parameters                       #
##########################################################
debug-on-errors = true
print-undisposed = true

*.playgroundSizeX = 65000m
*.playgroundSizeY = 25000m
*.playgroundSizeZ = 50m

sim-time-limit = 120 s

##########################################################
# Annotation parameters                                  #
##########################################################
*.annotations.draw = false

##########################################################
# Obstacle parameters                                    #
##########################################################
*.obstacles.debug = false

##########################################################
#            WorldUtility parameters                     #
##########################################################
*.world.useTorus = false
*.world.use2D = false

##########################################################
#            TraCIScenarioManager parameters             #
##########################################################
*.manager.updateInterval = 0.01s
*.manager.host = "localhost"
*.manager.moduleType = "org.car2x.plexe.PlatoonCar"
*.manager.moduleName = "node"
*.manager.moduleDisplayString = ""
*.manager.autoShutdown = true
*.manager.margin = 25

##########################################################
#            11p specific parameters                     #
#                                                        #
#                    NIC-Settings                        #
##########################################################
*.connectionManager.sendDirect = true
*.connectionManager.maxInterfDist = 2600m
*.connectionManager.drawMaxIntfDist = false

*.**.nic.mac1609_4.useServiceChannel = false

*.**.nic.mac1609_4.txPower = 100mW
*.**.nic.mac1609_4.bitrate = 6Mbps

*.**.nic.mac1609_4.useAcks = true
*.**.nic.mac1609_4.ackErrorRate = 0.0
*.**.nic.mac1609_4.frameErrorRate = 0.0

*.**.nic.phy80211p.minPowerLevel = -94dBm
*.**.nic.phy80211p.maxTXPower = 100mW
*.**.nic.phy80211p.useNoiseFloor = true
*.**.nic.phy80211p.noiseFloor = -95dBm
*.**.nic.phy80211p.decider = xmldoc("config.xml")
*.**.nic.phy80211p.analogueModels = xmldoc("config.xml")
*.**.nic.phy80211p.usePropagationDelay = true

##########################################################
#                      Mobility                          #
##########################################################
*.node[*].mobility.x = 0
*.node[*].mobility.y = 0
*.node[*].mobility.z = 1.895


##########################################################
#                    Seeds and PRNGs                     #
##########################################################
seed-set = ${repetition}
**.seed = ${repetition}

*.node[*].prot.rng-0 = 2
*.node[*].appl.rng-0 = 3
*.node[*].scenario.rng-0 = 4
**.traffic.rng-0 = 5

#launch config. tells Veins which SUMO configuration to run
*.manager.configFile = "./sumocfg/freeway.sumo.cfg"
*.manager.launchConfig = xmldoc("./sumocfg/freeway.launchd.xml")

##########################################################
#                   Common parameters                    #
##########################################################

**.numberOfCars = ${nCars = 8} #fixed
**.numberOfCarsPerPlatoon = ${platoonSize = 4} #fixed
**.numberOfLanes = ${nLanes = 1} #fixed
**.controllerXi = ${caccXi = 1, 2}
**.controllerOmegaN = ${caccOmegaN = 0.2, 1 ! caccXi}

##########################################################
#                    Position helper                     #
##########################################################

*.node[*].helper_type = "PositionHelper"

##########################################################
#               Scenario common parameters               #
##########################################################

#controller and engine related parameters
*.node[*].scenario.caccC1 = 0.5
*.node[*].scenario.caccXi = ${caccXi}
*.node[*].scenario.caccOmegaN = ${caccOmegaN} Hz
*.node[*].scenario.caccSpacing = 5 m
*.node[*].scenario.engineTau = 0.5 s
*.node[*].scenario.ploegH = ${ploegH = 0.5}s
*.node[*].scenario.ploegKp = 0.2
*.node[*].scenario.ploegKd = 0.7
*.node[*].scenario.useRealisticEngine = false

#controllers to be tested
**.numericController = 0
*.node[*].scenario.controller = "CACC"

#headway for ACCs
*.node[*].scenario.accHeadway = 0.1 s
*.node[*].scenario.leaderHeadway = ${leaderHeadway = 1.2}s

#average leader speed
*.node[*].scenario.leaderSpeed = ${leaderSpeed = 100}kmph

##########################################################
#                      Application                       #
##########################################################

*.node[*].appl_type = "LaneChangePlatooningApp"
#enable statistics recording for the application
*.node[*].appl.*.scalar-recording = true
*.node[*].appl.*.vector-recording = true
*.node[*].appl.joinManeuver = "JoinAtBack"
*.node[*].appl.mergeManeuver = "MergeAtBack"
*.node[*].appl.laneChange = "LaneChange"

##########################################################
#                Communication protocols                 #
##########################################################

*.node[*].protocol_type = "SimplePlatooningBeaconing"
#enable statistics recording for the network layer
*.node[*].prot.*.scalar-recording = true
*.node[*].prot.*.vector-recording = true
#set the beaconing interval to be 0.1s
*.node[*].prot.beaconingInterval = ${beaconInterval = 0.1}s
#access category for platooning beacons
*.node[*].prot.priority = ${priority = 2}
#packet size for platooning beacon
*.node[*].prot.packetSize = ${packetSize = 200}

##########################################################
#                    Traffic manager                     #
##########################################################

**.traffic_type = "PlatoonsTrafficManager"
#insert platooning vehicles at time
**.traffic.platoonInsertTime = 0.2 s
#insert platooning vehicles with a speed of
**.traffic.platoonInsertSpeed = ${leaderSpeed}kmph
#insert nCars platooning vehicles
**.traffic.nCars = ${nCars}
#let platoonSize cars per platoon
**.traffic.platoonSize = ${platoonSize}
#use nLanes lanes
**.traffic.nLanes = ${nLanes}
#SUMO vtype for platooning vehicles
**.traffic.platooningVType = "vtypeauto"
#insert vehicles already at steady-state. distance depends on controller
**.traffic.platoonInsertDistance = 5 m
**.traffic.platoonInsertHeadway = 0 s
**.traffic.platoonLeaderHeadway = ${leaderHeadway}s


#disable statistics recording for all other modules
**.scalar-recording = false
**.vector-recording = false

[Config ChangeLaneManeuver]

repeat = 1
*.manager.command = "sumo-gui"
*.manager.ignoreGuiCommands = false

#the controller used by car outside the platoon
#CACC the maneuver success; DRIVER the maneuver abort
*.node[*].scenario.otherCarController = "ACC"

# Change the moment when the maneuver starts
*.node[*].scenario.meneuverTime = 12

# Change the speed of the leader of the platoon
*.node[*].scenario.desiredPlatoonSpeed = 100

# Change the speed of the car outside the platoon
*.node[*].scenario.desiredOtherCarSpeed = 130

#use the laneChange maneuver scenario
*.node[*].scenario_type = "LaneChangeManeuverScenario"

output-vector-file = ${resultdir}/${configname}_${caccXi}_${caccOmegaN}_${repetition}.vec
output-scalar-file = ${resultdir}/${configname}_${caccXi}_${caccOmegaN}_${repetition}.sca



